CSD_code = TUDRUG | q = 0 | S = 0 | Stoichiometry = C17H26ClN3Pd | MND = 4
 OpenBabel04212202103D

 48 50  0  0  0  0  0  0  0  0999 V2000
    4.4515    3.7783    5.2043 Pd  0  0  1  0  0  0  0  0  0  0  0  0
    4.6075    3.5487    2.9506 Cl  0  0  0  0  0  0  0  0  0  0  0  0
    5.4189    3.1705    7.9433 N   0  0  0  0  0  0  0  0  0  0  0  0
    3.3068    3.5611    7.9172 N   0  0  0  0  0  0  0  0  0  0  0  0
    2.2666    2.7975    5.1772 N   0  0  0  0  0  4  0  0  0  0  0  0
    4.4208    3.6283    7.1589 C   0  0  0  0  0  0  0  0  0  0  0  0
    3.6024    3.0620    9.1611 C   0  0  0  0  0  0  0  0  0  0  0  0
    2.8581    2.9252    9.9188 H   0  0  0  0  0  0  0  0  0  0  0  0
    4.9337    2.8260    9.1805 C   0  0  0  0  0  0  0  0  0  0  0  0
    5.5610    2.4333    9.9538 H   0  0  0  0  0  0  0  0  0  0  0  0
    1.9912    3.8434    7.4095 C   0  0  0  0  0  0  0  0  0  0  0  0
    2.0218    4.8025    6.8792 H   0  0  0  0  0  0  0  0  0  0  0  0
    1.2945    3.9160    8.2480 H   0  0  0  0  0  0  0  0  0  0  0  0
    1.5464    2.7290    6.4464 C   0  0  0  0  0  0  0  0  0  0  0  0
    1.7530    1.7663    6.9260 H   0  0  0  0  0  0  0  0  0  0  0  0
    0.4589    2.8039    6.2858 H   0  0  0  0  0  0  0  0  0  0  0  0
    1.6165    3.7566    4.2795 C   0  0  0  0  0  0  0  0  0  0  0  0
    0.5716    3.4698    4.0849 H   0  0  0  0  0  0  0  0  0  0  0  0
    2.1649    3.7827    3.3358 H   0  0  0  0  0  0  0  0  0  0  0  0
    1.6369    4.7605    4.7142 H   0  0  0  0  0  0  0  0  0  0  0  0
    2.3248    1.4913    4.5282 C   0  0  0  0  0  0  0  0  0  0  0  0
    2.8162    0.7706    5.1846 H   0  0  0  0  0  0  0  0  0  0  0  0
    2.9109    1.5870    3.6125 H   0  0  0  0  0  0  0  0  0  0  0  0
    1.3214    1.1178    4.2762 H   0  0  0  0  0  0  0  0  0  0  0  0
    6.7836    3.0682    7.5570 C   0  0  0  0  0  0  0  0  0  0  0  0
    7.1695    2.1286    6.5979 C   0  0  0  0  0  0  0  0  0  0  0  0
    8.5135    2.0521    6.2565 C   0  0  0  0  0  0  0  0  0  0  0  0
    8.8203    1.3343    5.5098 H   0  0  0  0  0  0  0  0  0  0  0  0
    9.4623    2.8772    6.8382 C   0  0  0  0  0  0  0  0  0  0  0  0
    9.0484    3.8033    7.7869 C   0  0  0  0  0  0  0  0  0  0  0  0
    9.7778    4.4598    8.2393 H   0  0  0  0  0  0  0  0  0  0  0  0
    7.7186    3.9157    8.1560 C   0  0  0  0  0  0  0  0  0  0  0  0
    6.1724    1.2328    5.9280 C   0  0  0  0  0  0  0  0  0  0  0  0
    5.6363    1.8072    5.1409 H   0  0  0  0  0  0  0  0  0  0  0  0
    5.4405    0.8499    6.6413 H   0  0  0  0  0  0  0  0  0  0  0  0
    6.6727    0.3941    5.4506 H   0  0  0  0  0  0  0  0  0  0  0  0
    7.2923    4.9453    9.1604 C   0  0  0  0  0  0  0  0  0  0  0  0
    8.0612    5.7056    9.2693 H   0  0  0  0  0  0  0  0  0  0  0  0
    7.1255    4.4916   10.1376 H   0  0  0  0  0  0  0  0  0  0  0  0
    6.3667    5.4277    8.8501 H   0  0  0  0  0  0  0  0  0  0  0  0
   10.9094    2.7779    6.4648 C   0  0  0  0  0  0  0  0  0  0  0  0
   11.3221    3.7662    6.2719 H   0  0  0  0  0  0  0  0  0  0  0  0
   11.0416    2.1635    5.5784 H   0  0  0  0  0  0  0  0  0  0  0  0
   11.4782    2.3326    7.2812 H   0  0  0  0  0  0  0  0  0  0  0  0
    6.0256    5.0871    5.1584 C   0  0  0  0  0  0  0  0  0  0  0  0
    6.2737    5.5439    6.1207 H   0  0  0  0  0  0  0  0  0  0  0  0
    5.7300    5.8719    4.4513 H   0  0  0  0  0  0  0  0  0  0  0  0
    6.9064    4.5679    4.7658 H   0  0  0  0  0  0  0  0  0  0  0  0
  1  2  1  6  0  0  0
  1  6  2  0  0  0  0
  3  9  1  0  0  0  0
  4  7  1  0  0  0  0
  5  1  1  0  0  0  0
  5 14  1  0  0  0  0
  6  4  1  0  0  0  0
  6  3  1  0  0  0  0
  7  9  2  0  0  0  0
  7  8  1  0  0  0  0
  9 10  1  0  0  0  0
 11  4  1  0  0  0  0
 11 13  1  0  0  0  0
 12 11  1  0  0  0  0
 14 15  1  0  0  0  0
 14 11  1  0  0  0  0
 16 14  1  0  0  0  0
 17 20  1  0  0  0  0
 17  5  1  0  0  0  0
 18 17  1  0  0  0  0
 19 17  1  0  0  0  0
 21  5  1  0  0  0  0
 21 22  1  0  0  0  0
 23 21  1  0  0  0  0
 24 21  1  0  0  0  0
 25  3  1  0  0  0  0
 25 32  1  0  0  0  0
 26 25  2  0  0  0  0
 27 26  1  0  0  0  0
 27 29  2  0  0  0  0
 28 27  1  0  0  0  0
 29 30  1  0  0  0  0
 30 32  2  0  0  0  0
 30 31  1  0  0  0  0
 32 37  1  0  0  0  0
 33 26  1  0  0  0  0
 33 35  1  0  0  0  0
 34 33  1  0  0  0  0
 36 33  1  0  0  0  0
 37 38  1  0  0  0  0
 37 39  1  0  0  0  0
 40 37  1  0  0  0  0
 41 29  1  0  0  0  0
 41 44  1  0  0  0  0
 42 41  1  0  0  0  0
 43 41  1  0  0  0  0
 45  1  1  0  0  0  0
 45 46  1  0  0  0  0
 47 45  1  0  0  0  0
 48 45  1  0  0  0  0
M  END
$$$$
